  USGS SEAWAT MODEL BATCH-MODE REPORT

 Test.nam                                                                                                                                                                                                
